src/applications/data_sets/raw/IEEE14_kds.raw
0  100.000


      1, 3,     0.000,     0.000,     0.000,     0.000,   1,1.06000,   0.0000,'BUS-1       ',100.0000,   2
      2, 2,    30.380,    17.780,     0.000,     0.000,   1,1.04500,  -7.7248,'BUS-2       ',100.0000,   2
      3, 2,   131.880,    26.600,     0.000,     0.000,   1,1.01000, -18.8614,'BUS-3       ',100.0000,   2
      4, 2,    15.680,    10.500,     0.000,     0.000,   1,1.07000, -21.4625,'BUS-4       ',100.0000,   2
      5, 2,     0.000,     0.000,     0.000,     0.000,   1,1.09000, -19.7135,'BUS-5       ',100.0000,   2
      6, 1,    66.920,     5.600,     0.000,     0.000,   1,1.01190, -15.2461,'BUS-6       ',100.0000,   2
      7, 1,    -0.000,    -0.000,     0.000,     0.000,   1,1.04110, -19.7135,'BUS-7       ',100.0000,   2
      8, 1,    10.640,     2.240,     0.000,     0.000,   1,1.01960, -13.1349,'BUS-8       ',100.0000,   2
      9, 1,    41.300,    23.240,     0.000,     0.000,   1,1.02840, -22.0243,'BUS-9       ',100.0000,   2
     10, 1,    12.600,     8.120,     0.000,     0.000,   1,1.02510, -22.3292,'BUS-10      ',100.0000,   2
     11, 1,     4.900,     2.520,     0.000,     0.000,   1,1.04230, -22.0656,'BUS-11      ',100.0000,   2
     12, 1,     8.540,     2.240,     0.000,     0.000,   1,1.04730, -22.6552,'BUS-12      ',100.0000,   2
     13, 1,    18.900,     8.120,     0.000,     0.000,   1,1.03890, -22.7196,'BUS-13      ',100.0000,   2
     14, 1,    20.860,     7.000,     0.000,     0.000,   1,1.00700, -23.7937,'BUS-14      ',100.0000,   2
0
      1,'1 ',   351.420,   -35.620,  9999.000, -9999.000,1.06000,     0,   615.000,   0.00000,   0.2998,   0.00000,   0.00000,   1.00000,1,  100.0,     0.000,     0.000
      2,'1 ',    40.000,    76.630,  9999.000, -9999.000,1.04500,     0,    60.000,   0.00000,   0.1850,   0.00000,   0.00000,   1.00000,1,  100.0,     0.000,     0.000
      3,'1 ',     0.000,    52.290,  9999.000, -9999.000,1.01000,     0,    60.000,   0.00000,   0.1850,   0.00000,   0.00000,   1.00000,1,  100.0,     0.000,     0.000
      4,'1 ',     0.000,    63.440,  9999.000, -9999.000,1.07000,     0,    25.000,   0.00000,   0.2320,   0.00000,   0.00000,   1.00000,1,  100.0,     0.000,     0.000
      5,'1 ',     0.000,    30.240,  9999.000, -9999.000,1.09000,     0,    25.000,   0.00000,   0.2320,   0.00000,   0.00000,   1.00000,1,  100.0,     0.000,     0.000
0 / END OF GENERATOR DATA, BEGIN BRANCH DATA
      1,      2,'BL',  0.01940,  0.05920,  0.05280,   0.00,   0.00,   0.00,1.00000,  0.000, 0.00000, 0.00000, 0.00000, 0.00000, 1
      1,      8,'BL',  0.05400,  0.22300,  0.04920,   0.00,   0.00,   0.00,1.00000,  0.000, 0.00000, 0.00000, 0.00000, 0.00000, 1
      2,      3,'BL',  0.04700,  0.19800,  0.04380,   0.00,   0.00,   0.00,1.00000,  0.000, 0.00000, 0.00000, 0.00000, 0.00000, 1
      2,      6,'BL',  0.05810,  0.17630,  0.03400,   0.00,   0.00,   0.00,1.00000,  0.000, 0.00000, 0.00000, 0.00000, 0.00000, 1
      2,      8,'BL',  0.05700,  0.17390,  0.03460,   0.00,   0.00,   0.00,1.00000,  0.000, 0.00000, 0.00000, 0.00000, 0.00000, 1
      3,      6,'BL',  0.06700,  0.17100,  0.01280,   0.00,   0.00,   0.00,1.00000,  0.000, 0.00000, 0.00000, 0.00000, 0.00000, 1
      6,      8,'BL',  0.01340,  0.04210,  0.00000,   0.00,   0.00,   0.00,1.00000,  0.000, 0.00000, 0.00000, 0.00000, 0.00000, 1
      6,      7,'BL',  0.00000,  0.20910,  0.00000,   0.00,   0.00,   0.00,1.00000,  0.000, 0.00000, 0.00000, 0.00000, 0.00000, 1
      6,      9,'BL',  0.00000,  0.55620,  0.00000,   0.00,   0.00,   0.00,1.00000,  0.000, 0.00000, 0.00000, 0.00000, 0.00000, 1
      8,      4,'BL',  0.00000,  0.25200,  0.00000,   0.00,   0.00,   0.00,1.00000,  0.000, 0.00000, 0.00000, 0.00000, 0.00000, 1
      4,     11,'BL',  0.09500,  0.19890,  0.00000,   0.00,   0.00,   0.00,1.00000,  0.000, 0.00000, 0.00000, 0.00000, 0.00000, 1
      4,     12,'BL',  0.12290,  0.25580,  0.00000,   0.00,   0.00,   0.00,1.00000,  0.000, 0.00000, 0.00000, 0.00000, 0.00000, 1
      4,     13,'BL',  0.06620,  0.13030,  0.00000,   0.00,   0.00,   0.00,1.00000,  0.000, 0.00000, 0.00000, 0.00000, 0.00000, 1
      7,      5,'BL',  0.00000,  0.17620,  0.00000,   0.00,   0.00,   0.00,1.00000,  0.000, 0.00000, 0.00000, 0.00000, 0.00000, 1
      7,      9,'BL',  0.00000,  0.11000,  0.00000,   0.00,   0.00,   0.00,1.00000,  0.000, 0.00000, 0.00000, 0.00000, 0.00000, 1
      9,     10,'BL',  0.03180,  0.08450,  0.00000,   0.00,   0.00,   0.00,1.00000,  0.000, 0.00000, 0.00000, 0.00000, 0.00000, 1
      9,     14,'BL',  0.12710,  0.27040,  0.00000,   0.00,   0.00,   0.00,1.00000,  0.000, 0.00000, 0.00000, 0.00000, 0.00000, 1
     10,     11,'BL',  0.08200,  0.19210,  0.00000,   0.00,   0.00,   0.00,1.00000,  0.000, 0.00000, 0.00000, 0.00000, 0.00000, 1
     12,     13,'BL',  0.22090,  0.19990,  0.00000,   0.00,   0.00,   0.00,1.00000,  0.000, 0.00000, 0.00000, 0.00000, 0.00000, 1
     13,     14,'BL',  0.17090,  0.34800,  0.00000,   0.00,   0.00,   0.00,1.00000,  0.000, 0.00000, 0.00000, 0.00000, 0.00000, 1
0 / END OF BRANCH DATA, BEGIN TRANSFORMER ADJUSTMENT DATA
0 / END OF TRANSFORMER ADJUSTMENT DATA, BEGIN AREA DATA
   1,      0,     0.0,  3.000,'            '
0 / END OF AREA DATA, BEGIN TWO-TERMINAL DC DATA
0 / END OF TWO-TERMINAL DC DATA, BEGIN SWITCHED SHUNT DATA
0 / END OF SWITCHED SHUNT DATA, BEGIN IMPEDANCE CORRECTION DATA
0 / END OF IMPEDANCE CORRECTION DATA, BEGIN MULTI-TERMINAL DC DATA
0 / END OF MULTI-TERMINAL DC DATA, BEGIN MULTI-SECTION LINE DATA
0 / END OF MULTI-SECTION LINE DATA, BEGIN ZONE DATA
    2,'ZONE_2      '
0 / END OF ZONE DATA, BEGIN INTER-AREA TRANSFER DATA
0 / END OF INTER-AREA TRANSFER DATA, BEGIN OWNER DATA
    1,'OWNER_1     '
0 / END OF OWNER DATA, BEGIN FACTS DEVICE DATA
